data_image0
_chemical_formula_structural       NaClNaClNaClNaClNaClNaClNaClNaClNaClNaClNaClNaClNaClNaClNaClNaClNaClNaClNaClNaClNaClNaClNaClNaClNaClNaClNaClNaClNaClNaClNaClNaCl
_chemical_formula_sum              "Na32 Cl32"
_cell_length_a       11.26
_cell_length_b       11.26
_cell_length_c       11.26
_cell_angle_alpha    90.0
_cell_angle_beta     90.0
_cell_angle_gamma    90.0

_space_group_name_H-M_alt    "P 1"
_space_group_IT_number       1

loop_
  _space_group_symop_operation_xyz
  'x, y, z'

loop_
  _atom_site_type_symbol
  _atom_site_label
  _atom_site_symmetry_multiplicity
  _atom_site_fract_x
  _atom_site_fract_y
  _atom_site_fract_z
  _atom_site_occupancy
  Na  Na1       1.0  0.0  0.0  0.0  1.0000
  Cl  Cl1       1.0  0.25  0.0  0.0  1.0000
  Na  Na2       1.0  0.0  0.25  0.25  1.0000
  Cl  Cl2       1.0  0.25  0.25  0.25  1.0000
  Na  Na3       1.0  0.25  0.0  0.25  1.0000
  Cl  Cl3       1.0  0.0  0.0  0.25  1.0000
  Na  Na4       1.0  0.25  0.25  0.0  1.0000
  Cl  Cl4       1.0  0.0  0.25  0.0  1.0000
  Na  Na5       1.0  0.0  0.0  0.5  1.0000
  Cl  Cl5       1.0  0.25  0.0  0.5  1.0000
  Na  Na6       1.0  0.0  0.25  0.75  1.0000
  Cl  Cl6       1.0  0.25  0.25  0.75  1.0000
  Na  Na7       1.0  0.25  0.0  0.75  1.0000
  Cl  Cl7       1.0  0.0  0.0  0.75  1.0000
  Na  Na8       1.0  0.25  0.25  0.5  1.0000
  Cl  Cl8       1.0  0.0  0.25  0.5  1.0000
  Na  Na9       1.0  0.0  0.5  0.0  1.0000
  Cl  Cl9       1.0  0.25  0.5  0.0  1.0000
  Na  Na10      1.0  0.0  0.75  0.25  1.0000
  Cl  Cl10      1.0  0.25  0.75  0.25  1.0000
  Na  Na11      1.0  0.25  0.5  0.25  1.0000
  Cl  Cl11      1.0  0.0  0.5  0.25  1.0000
  Na  Na12      1.0  0.25  0.75  0.0  1.0000
  Cl  Cl12      1.0  0.0  0.75  0.0  1.0000
  Na  Na13      1.0  0.0  0.5  0.5  1.0000
  Cl  Cl13      1.0  0.25  0.5  0.5  1.0000
  Na  Na14      1.0  0.0  0.75  0.75  1.0000
  Cl  Cl14      1.0  0.25  0.75  0.75  1.0000
  Na  Na15      1.0  0.25  0.5  0.75  1.0000
  Cl  Cl15      1.0  0.0  0.5  0.75  1.0000
  Na  Na16      1.0  0.25  0.75  0.5  1.0000
  Cl  Cl16      1.0  0.0  0.75  0.5  1.0000
  Na  Na17      1.0  0.5  0.0  0.0  1.0000
  Cl  Cl17      1.0  0.75  0.0  0.0  1.0000
  Na  Na18      1.0  0.5  0.25  0.25  1.0000
  Cl  Cl18      1.0  0.75  0.25  0.25  1.0000
  Na  Na19      1.0  0.75  0.0  0.25  1.0000
  Cl  Cl19      1.0  0.5  0.0  0.25  1.0000
  Na  Na20      1.0  0.75  0.25  0.0  1.0000
  Cl  Cl20      1.0  0.5  0.25  0.0  1.0000
  Na  Na21      1.0  0.5  0.0  0.5  1.0000
  Cl  Cl21      1.0  0.75  0.0  0.5  1.0000
  Na  Na22      1.0  0.5  0.25  0.75  1.0000
  Cl  Cl22      1.0  0.75  0.25  0.75  1.0000
  Na  Na23      1.0  0.75  0.0  0.75  1.0000
  Cl  Cl23      1.0  0.5  0.0  0.75  1.0000
  Na  Na24      1.0  0.75  0.25  0.5  1.0000
  Cl  Cl24      1.0  0.5  0.25  0.5  1.0000
  Na  Na25      1.0  0.5  0.5  0.0  1.0000
  Cl  Cl25      1.0  0.75  0.5  0.0  1.0000
  Na  Na26      1.0  0.5  0.75  0.25  1.0000
  Cl  Cl26      1.0  0.75  0.75  0.25  1.0000
  Na  Na27      1.0  0.75  0.5  0.25  1.0000
  Cl  Cl27      1.0  0.5  0.5  0.25  1.0000
  Na  Na28      1.0  0.75  0.75  0.0  1.0000
  Cl  Cl28      1.0  0.5  0.75  0.0  1.0000
  Na  Na29      1.0  0.5  0.5  0.5  1.0000
  Cl  Cl29      1.0  0.75  0.5  0.5  1.0000
  Na  Na30      1.0  0.5  0.75  0.75  1.0000
  Cl  Cl30      1.0  0.75  0.75  0.75  1.0000
  Na  Na31      1.0  0.75  0.5  0.75  1.0000
  Cl  Cl31      1.0  0.5  0.5  0.75  1.0000
  Na  Na32      1.0  0.75  0.75  0.5  1.0000
  Cl  Cl32      1.0  0.5  0.75  0.5  1.0000

